# Name File for MODFLOW created on 3/23/2009 by ModelMuse
LIST 11 ex3.3.lst REPLACE
DATA(BINARY) 9 ex3.3.cbc REPLACE

#Files generated outside of ModelMuse
HOB  90   ex3.3.obh
DATA  91  ex3.3.obh_out

#Files generated by ModelMuse
DIS 12 ex3.3.dis OLD
BAS6 13 ex3.3.bas OLD
OC 39 ex3.3.oc OLD
DATA 37 ex3.3.fhd REPLACE
DATA 38 ex3.3.fdn REPLACE
PCG 18 ex3.3.pcg OLD
LPF 14 ex3.3.lpf OLD
GHB 19 ex3.3.ghb OLD
RIV 21 ex3.3.riv OLD
RVOB 48 ex3.3.ob_rvob OLD
DATA 49 ex3.3.rvob_out REPLACE
RCH 24 ex3.3.rch OLD
ZONE 15 ex3.3.zon OLD
MULT 16 ex3.3.mlt OLD
PVAL 52 ex3.3.pval OLD
