                                  MODFLOW-2000
      U.S. GEOLOGICAL SURVEY MODULAR FINITE-DIFFERENCE GROUND-WATER FLOW MODEL
                           VERSION 1.15.00 08/06/2004


 This model run produced both GLOBAL and LIST files.  This is the GLOBAL file.

 GLOBAL LISTING FILE: tc1-fwd.glo
                         UNIT   11

 OPENING tc1-fwd.lst
 FILE TYPE:LIST   UNIT   12   STATUS:REPLACE
 FORMAT:FORMATTED              ACCESS:SEQUENTIAL          
#                                                                                                                                                                                                       
# Obs-Sen-Pes process input files                                                                                                                                                                       

 OPENING tc1-fwd.obs
 FILE TYPE:OBS   UNIT   21   STATUS:OLD    
 FORMAT:FORMATTED              ACCESS:SEQUENTIAL          

 OPENING tc1-fwd.ohd
 FILE TYPE:HOB   UNIT   22   STATUS:OLD    
 FORMAT:FORMATTED              ACCESS:SEQUENTIAL          

 OPENING tc1-fwd.orv
 FILE TYPE:RVOB   UNIT   23   STATUS:OLD    
 FORMAT:FORMATTED              ACCESS:SEQUENTIAL          
#                                                                                                                                                                                                       
# Global input files                                                                                                                                                                                    

 OPENING tc1-fwd.dis
 FILE TYPE:DIS   UNIT   31   STATUS:OLD    
 FORMAT:FORMATTED              ACCESS:SEQUENTIAL          

 OPENING tc1-fwd.zon
 FILE TYPE:ZONE   UNIT   32   STATUS:OLD    
 FORMAT:FORMATTED              ACCESS:SEQUENTIAL          

 OPENING tc1-fwd.mlt
 FILE TYPE:MULT   UNIT   33   STATUS:OLD    
 FORMAT:FORMATTED              ACCESS:SEQUENTIAL          
#                                                                                                                                                                                                       
# Flow process input files                                                                                                                                                                              

 OPENING tc1-fwd.bas
 FILE TYPE:BAS6   UNIT   41   STATUS:OLD    
 FORMAT:FORMATTED              ACCESS:SEQUENTIAL          

 OPENING tc1-fwd.lpf
 FILE TYPE:LPF   UNIT   42   STATUS:OLD    
 FORMAT:FORMATTED              ACCESS:SEQUENTIAL          

 OPENING tc1-fwd.wel
 FILE TYPE:WEL   UNIT   43   STATUS:OLD    
 FORMAT:FORMATTED              ACCESS:SEQUENTIAL          

 OPENING tc1-fwd.pcg
 FILE TYPE:PCG   UNIT   44   STATUS:OLD    
 FORMAT:FORMATTED              ACCESS:SEQUENTIAL          

 OPENING tc1-fwd.oc
 FILE TYPE:OC   UNIT   45   STATUS:OLD    
 FORMAT:FORMATTED              ACCESS:SEQUENTIAL          

 OPENING tc1-fwd.ghb
 FILE TYPE:GHB   UNIT   46   STATUS:OLD    
 FORMAT:FORMATTED              ACCESS:SEQUENTIAL          

 OPENING tc1-fwd.riv
 FILE TYPE:RIV   UNIT   47   STATUS:OLD    
 FORMAT:FORMATTED              ACCESS:SEQUENTIAL          

 OPENING tc1-fwd.rch
 FILE TYPE:RCH   UNIT   48   STATUS:OLD    
 FORMAT:FORMATTED              ACCESS:SEQUENTIAL          

 THE FREE FORMAT OPTION HAS BEEN SELECTED

 DISCRETIZATION INPUT DATA READ FROM UNIT   31
 # DIS file for test case tc1
    3 LAYERS        18 ROWS        18 COLUMNS
    5 STRESS PERIOD(S) IN SIMULATION
 MODEL TIME UNIT IS SECONDS
 MODEL LENGTH UNIT IS METERS
 THE GROUND-WATER TRANSPORT PROCESS IS INACTIVE

 THE OBSERVATION PROCESS IS ACTIVE
 THE SENSITIVITY PROCESS IS INACTIVE
 THE PARAMETER-ESTIMATION PROCESS IS INACTIVE

 MODE: FORWARD WITH OBSERVATIONS


 ZONE OPTION, INPUT READ FROM UNIT   32
     1 ZONE ARRAYS

 MULTIPLIER OPTION, INPUT READ FROM UNIT   33
   3 MULTIPLIER ARRAYS
  Confining bed flag for each layer:
   0   1   0

      10080  ELEMENTS OF GX ARRAY USED OUT OF      10080
        972  ELEMENTS OF GZ ARRAY USED OUT OF        972
       1296  ELEMENTS OF IG ARRAY USED OUT OF       1296

                     DELR =   1000.00    

                     DELC =   1000.00    

 TOP ELEVATION OF LAYER 1 =   300.000    



             MODEL LAYER BOTTOM EL. FOR LAYER   1
 READING ON UNIT   31 WITH FORMAT: (FREE)              

            1           2           3           4           5           6           7           8           9          10
           11          12          13          14          15          16          17          18
 ........................................................................................................................
   1    110.0       140.0       160.0       180.0       200.0       220.0       240.0       260.0       280.0       280.0    
        280.0       280.0       285.0       285.0       285.0       285.0       285.0       285.0    
   2    110.0       140.0       160.0       180.0       200.0       220.0       240.0       260.0       280.0       280.0    
        280.0       280.0       285.0       285.0       285.0       285.0       285.0       285.0    
   3    110.0       140.0       160.0       180.0       200.0       220.0       240.0       260.0       280.0       280.0    
        280.0       280.0       285.0       285.0       285.0       285.0       285.0       285.0    
   4    110.0       140.0       160.0       180.0       200.0       220.0       240.0       260.0       280.0       280.0    
        280.0       280.0       285.0       285.0       285.0       285.0       285.0       285.0    
   5    110.0       140.0       160.0       180.0       200.0       220.0       240.0       260.0       280.0       280.0    
        280.0       280.0       285.0       285.0       285.0       285.0       285.0       285.0    
   6    110.0       140.0       160.0       180.0       200.0       220.0       240.0       260.0       280.0       280.0    
        280.0       280.0       285.0       285.0       285.0       285.0       285.0       285.0    
   7    110.0       140.0       160.0       180.0       200.0       220.0       240.0       260.0       280.0       280.0    
        280.0       280.0       285.0       285.0       285.0       285.0       285.0       285.0    
   8    110.0       140.0       160.0       180.0       200.0       220.0       240.0       260.0       280.0       280.0    
        280.0       280.0       285.0       285.0       285.0       285.0       285.0       285.0    
   9    110.0       140.0       160.0       180.0       200.0       220.0       240.0       260.0       280.0       280.0    
        280.0       280.0       285.0       285.0       285.0       285.0       285.0       285.0    
  10    110.0       140.0       160.0       180.0       200.0       220.0       240.0       260.0       280.0       280.0    
        280.0       280.0       285.0       285.0       285.0       285.0       285.0       285.0    
  11    110.0       140.0       160.0       180.0       200.0       220.0       240.0       260.0       280.0       280.0    
        280.0       280.0       285.0       285.0       285.0       285.0       285.0       285.0    
  12    110.0       140.0       160.0       180.0       200.0       220.0       240.0       260.0       280.0       280.0    
        280.0       280.0       285.0       285.0       285.0       285.0       285.0       285.0    
  13    110.0       140.0       160.0       180.0       200.0       220.0       240.0       260.0       280.0       280.0    
        280.0       280.0       285.0       285.0       285.0       285.0       285.0       285.0    
  14    110.0       140.0       160.0       180.0       200.0       220.0       240.0       260.0       280.0       280.0    
        280.0       280.0       285.0       285.0       285.0       285.0       285.0       285.0    
  15    110.0       140.0       160.0       180.0       200.0       220.0       240.0       260.0       280.0       280.0    
        280.0       280.0       285.0       285.0       285.0       285.0       285.0       285.0    
  16    110.0       140.0       160.0       180.0       200.0       220.0       240.0       260.0       280.0       280.0    
        280.0       280.0       285.0       285.0       285.0       285.0       285.0       285.0    
  17    110.0       140.0       160.0       180.0       200.0       220.0       240.0       260.0       280.0       280.0    
        280.0       280.0       285.0       285.0       285.0       285.0       285.0       285.0    
  18    110.0       140.0       160.0       180.0       200.0       220.0       240.0       260.0       280.0       280.0    
        280.0       280.0       285.0       285.0       285.0       285.0       285.0       285.0    



             MODEL LAYER BOTTOM EL. FOR LAYER   2
 READING ON UNIT   31 WITH FORMAT: (FREE)              

            1           2           3           4           5           6           7           8           9          10
           11          12          13          14          15          16          17          18
 ........................................................................................................................
   1    100.0       100.0       100.0       100.0       100.0       100.0       100.0       100.0       100.0       100.0    
        100.0       100.0       100.0       100.0       100.0       100.0       100.0       100.0    
   2    100.0       100.0       100.0       100.0       100.0       100.0       100.0       100.0       100.0       100.0    
        100.0       100.0       100.0       100.0       100.0       100.0       100.0       100.0    
   3    100.0       100.0       100.0       100.0       100.0       100.0       100.0       100.0       100.0       100.0    
        100.0       100.0       100.0       100.0       100.0       100.0       100.0       100.0    
   4    100.0       100.0       100.0       100.0       100.0       100.0       100.0       100.0       100.0       100.0    
        100.0       100.0       100.0       100.0       100.0       100.0       100.0       100.0    
   5    100.0       100.0       100.0       100.0       100.0       100.0       100.0       100.0       100.0       100.0    
        100.0       100.0       100.0       100.0       100.0       100.0       100.0       100.0    
   6    100.0       100.0       100.0       100.0       100.0       100.0       100.0       100.0       100.0       100.0    
        100.0       100.0       100.0       100.0       100.0       100.0       100.0       100.0    
   7    100.0       100.0       100.0       100.0       100.0       100.0       100.0       100.0       100.0       100.0    
        100.0       100.0       100.0       100.0       100.0       100.0       100.0       100.0    
   8    100.0       100.0       100.0       100.0       100.0       100.0       100.0       100.0       100.0       100.0    
        100.0       100.0       100.0       100.0       100.0       100.0       100.0       100.0    
   9    100.0       100.0       100.0       100.0       100.0       100.0       100.0       100.0       100.0       100.0    
        100.0       100.0       100.0       100.0       100.0       100.0       100.0       100.0    
  10    100.0       100.0       100.0       100.0       100.0       100.0       100.0       100.0       120.0       100.0    
        100.0       100.0       100.0       100.0       100.0       100.0       100.0       100.0    
  11    100.0       100.0       100.0       100.0       100.0       100.0       100.0       100.0       100.0       100.0    
        100.0       100.0       100.0       100.0       100.0       100.0       100.0       100.0    
  12    100.0       100.0       100.0       100.0       100.0       100.0       100.0       100.0       100.0       100.0    
        100.0       100.0       100.0       100.0       100.0       100.0       100.0       100.0    
  13    100.0       100.0       100.0       100.0       100.0       100.0       100.0       100.0       100.0       100.0    
        100.0       100.0       100.0       100.0       100.0       100.0       100.0       100.0    
  14    100.0       100.0       100.0       100.0       100.0       120.0       100.0       100.0       100.0       100.0    
        100.0       100.0       100.0       100.0       100.0       100.0       100.0       100.0    
  15    100.0       100.0       100.0       100.0       100.0       100.0       100.0       100.0       100.0       100.0    
        100.0       100.0       100.0       100.0       100.0       100.0       100.0       100.0    
  16    100.0       100.0       100.0       100.0       100.0       100.0       100.0       100.0       100.0       100.0    
        100.0       100.0       100.0       100.0       100.0       100.0       100.0       100.0    
  17    100.0       100.0       100.0       100.0       100.0       100.0       100.0       100.0       100.0       100.0    
        100.0       100.0       100.0       100.0       100.0       100.0       100.0       100.0    
  18    100.0       100.0       100.0       100.0       100.0       100.0       100.0       100.0       100.0       100.0    
        100.0       100.0       100.0       100.0       100.0       100.0       100.0       100.0    



           BOT. EL. OF QUASI-3D BED FOR LAYER   2
 READING ON UNIT   31 WITH FORMAT: (FREE)              

            1           2           3           4           5           6           7           8           9          10
           11          12          13          14          15          16          17          18
 ........................................................................................................................
   1    90.00       90.00       90.00       90.00       90.00       90.00       90.00       90.00       90.00       90.00    
        90.00       90.00       90.00       90.00       90.00       90.00       90.00       90.00    
   2    90.00       90.00       90.00       90.00       90.00       90.00       90.00       90.00       90.00       90.00    
        90.00       90.00       90.00       90.00       90.00       90.00       90.00       90.00    
   3    90.00       90.00       90.00       90.00       90.00       90.00       90.00       90.00       90.00       90.00    
        90.00       90.00       90.00       90.00       90.00       90.00       90.00       90.00    
   4    90.00       90.00       90.00       90.00       90.00       90.00       90.00       90.00       90.00       90.00    
        90.00       90.00       90.00       90.00       90.00       90.00       90.00       90.00    
   5    90.00       90.00       90.00       90.00       90.00       90.00       90.00       90.00       90.00       90.00    
        90.00       90.00       90.00       90.00       90.00       90.00       90.00       90.00    
   6    90.00       90.00       90.00       90.00       90.00       90.00       90.00       90.00       90.00       90.00    
        90.00       90.00       90.00       90.00       90.00       90.00       90.00       90.00    
   7    90.00       90.00       90.00       90.00       90.00       90.00       90.00       90.00       90.00       90.00    
        90.00       90.00       90.00       90.00       90.00       90.00       90.00       90.00    
   8    90.00       90.00       90.00       90.00       90.00       90.00       90.00       90.00       90.00       90.00    
        90.00       90.00       90.00       90.00       90.00       90.00       90.00       90.00    
   9    90.00       90.00       90.00       90.00       90.00       90.00       90.00       90.00       90.00       90.00    
        90.00       90.00       90.00       90.00       90.00       90.00       90.00       90.00    
  10    90.00       90.00       90.00       90.00       90.00       90.00       90.00       90.00       118.8       90.00    
        90.00       90.00       90.00       90.00       90.00       90.00       90.00       90.00    
  11    90.00       90.00       90.00       90.00       90.00       90.00       90.00       90.00       90.00       90.00    
        90.00       90.00       90.00       90.00       90.00       90.00       90.00       90.00    
  12    90.00       90.00       90.00       90.00       90.00       90.00       90.00       90.00       90.00       90.00    
        90.00       90.00       90.00       90.00       90.00       90.00       90.00       90.00    
  13    90.00       90.00       90.00       90.00       90.00       90.00       90.00       90.00       90.00       90.00    
        90.00       90.00       90.00       90.00       90.00       90.00       90.00       90.00    
  14    90.00       90.00       90.00       90.00       90.00       118.8       90.00       90.00       90.00       90.00    
        90.00       90.00       90.00       90.00       90.00       90.00       90.00       90.00    
  15    90.00       90.00       90.00       90.00       90.00       90.00       90.00       90.00       90.00       90.00    
        90.00       90.00       90.00       90.00       90.00       90.00       90.00       90.00    
  16    90.00       90.00       90.00       90.00       90.00       90.00       90.00       90.00       90.00       90.00    
        90.00       90.00       90.00       90.00       90.00       90.00       90.00       90.00    
  17    90.00       90.00       90.00       90.00       90.00       90.00       90.00       90.00       90.00       90.00    
        90.00       90.00       90.00       90.00       90.00       90.00       90.00       90.00    
  18    90.00       90.00       90.00       90.00       90.00       90.00       90.00       90.00       90.00       90.00    
        90.00       90.00       90.00       90.00       90.00       90.00       90.00       90.00    



             MODEL LAYER BOTTOM EL. FOR LAYER   3
 READING ON UNIT   31 WITH FORMAT: (FREE)              

            1           2           3           4           5           6           7           8           9          10
           11          12          13          14          15          16          17          18
 ........................................................................................................................
   1    40.00       40.00       40.00       40.00       40.00       40.00       40.00       40.00       40.00       40.00    
        40.00       40.00       40.00       40.00       40.00       40.00       40.00       40.00    
   2    40.00       40.00       40.00       40.00       40.00       40.00       40.00       40.00       40.00       40.00    
        40.00       40.00       40.00       40.00       40.00       40.00       40.00       40.00    
   3    40.00       40.00       40.00       40.00       40.00       40.00       40.00       40.00       40.00       40.00    
        40.00       40.00       40.00       40.00       40.00       40.00       40.00       40.00    
   4    40.00       40.00       40.00       40.00       40.00       40.00       40.00       40.00       40.00       40.00    
        40.00       40.00       40.00       40.00       40.00       40.00       40.00       40.00    
   5    40.00       40.00       40.00       40.00       40.00       40.00       40.00       40.00       40.00       40.00    
        40.00       40.00       40.00       40.00       40.00       40.00       40.00       40.00    
   6    40.00       40.00       40.00       40.00       40.00       40.00       40.00       40.00       40.00       40.00    
        40.00       40.00       40.00       40.00       40.00       40.00       40.00       40.00    
   7    40.00       40.00       40.00       40.00       40.00       40.00       40.00       40.00       40.00       40.00    
        40.00       40.00       40.00       40.00       40.00       40.00       40.00       40.00    
   8    40.00       40.00       40.00       40.00       40.00       40.00       40.00       40.00       40.00       40.00    
        40.00       40.00       40.00       40.00       40.00       40.00       40.00       40.00    
   9    40.00       40.00       40.00       40.00       40.00       40.00       40.00       40.00       40.00       40.00    
        40.00       40.00       40.00       40.00       40.00       40.00       40.00       40.00    
  10    40.00       40.00       40.00       40.00       40.00       40.00       40.00       40.00       118.0       40.00    
        40.00       40.00       40.00       40.00       40.00       40.00       40.00       40.00    
  11    40.00       40.00       40.00       40.00       40.00       40.00       40.00       40.00       40.00       40.00    
        40.00       40.00       40.00       40.00       40.00       40.00       40.00       40.00    
  12    40.00       40.00       40.00       40.00       40.00       40.00       40.00       40.00       40.00       40.00    
        40.00       40.00       40.00       40.00       40.00       40.00       40.00       40.00    
  13    40.00       40.00       40.00       40.00       40.00       40.00       40.00       40.00       40.00       40.00    
        40.00       40.00       40.00       40.00       40.00       40.00       40.00       40.00    
  14    40.00       40.00       40.00       40.00       40.00       40.00       40.00       40.00       40.00       40.00    
        40.00       40.00       40.00       40.00       40.00       40.00       40.00       40.00    
  15    40.00       40.00       40.00       40.00       40.00       40.00       40.00       40.00       40.00       40.00    
        40.00       40.00       40.00       40.00       40.00       40.00       40.00       40.00    
  16    40.00       40.00       40.00       40.00       40.00       40.00       40.00       40.00       40.00       40.00    
        40.00       40.00       40.00       40.00       40.00       40.00       40.00       40.00    
  17    40.00       40.00       40.00       40.00       40.00       40.00       40.00       40.00       40.00       40.00    
        40.00       40.00       40.00       40.00       40.00       40.00       40.00       40.00    
  18    40.00       40.00       40.00       40.00       40.00       40.00       40.00       40.00       40.00       40.00    
        40.00       40.00       40.00       40.00       40.00       40.00       40.00       40.00    


 STRESS PERIOD     LENGTH       TIME STEPS     MULTIPLIER FOR DELT    SS FLAG
 ----------------------------------------------------------------------------
        1         1.000000          1                    1.000         SS
        2         87162.00          1                    1.000         TR
        3         261486.0          1                    1.000         TR
        4         522972.0          1                    1.000         TR
        5        2.3567450E+07      9                    1.200         TR

 COMBINED STEADY-STATE AND TRANSIENT SIMULATION






            MULT. ARRAY: MULTARR_3 
 READING ON UNIT   33 WITH FORMAT: (18F3.0)            

          1      2      3      4      5      6      7      8      9     10
         11     12     13     14     15     16     17     18
 .........................................................................
   1     1.0    1.0    2.0    2.0    3.0    3.0    4.0    4.0    5.0    5.0
         6.0    6.0    7.0    7.0    8.0    8.0    9.0    9.0
   2     1.0    1.0    2.0    2.0    3.0    3.0    4.0    4.0    5.0    5.0
         6.0    6.0    7.0    7.0    8.0    8.0    9.0    9.0
   3     1.0    1.0    2.0    2.0    3.0    3.0    4.0    4.0    5.0    5.0
         6.0    6.0    7.0    7.0    8.0    8.0    9.0    9.0
   4     1.0    1.0    2.0    2.0    3.0    3.0    4.0    4.0    5.0    5.0
         6.0    6.0    7.0    7.0    8.0    8.0    9.0    9.0
   5     1.0    1.0    2.0    2.0    3.0    3.0    4.0    4.0    5.0    5.0
         6.0    6.0    7.0    7.0    8.0    8.0    9.0    9.0
   6     1.0    1.0    2.0    2.0    3.0    3.0    4.0    4.0    5.0    5.0
         6.0    6.0    7.0    7.0    8.0    8.0    9.0    9.0
   7     1.0    1.0    2.0    2.0    3.0    3.0    4.0    4.0    5.0    5.0
         6.0    6.0    7.0    7.0    8.0    8.0    9.0    9.0
   8     1.0    1.0    2.0    2.0    3.0    3.0    4.0    4.0    5.0    5.0
         6.0    6.0    7.0    7.0    8.0    8.0    9.0    9.0
   9     1.0    1.0    2.0    2.0    3.0    3.0    4.0    4.0    5.0    5.0
         6.0    6.0    7.0    7.0    8.0    8.0    9.0    9.0
  10     1.0    1.0    2.0    2.0    3.0    3.0    4.0    4.0    5.0    5.0
         6.0    6.0    7.0    7.0    8.0    8.0    9.0    9.0
  11     1.0    1.0    2.0    2.0    3.0    3.0    4.0    4.0    5.0    5.0
         6.0    6.0    7.0    7.0    8.0    8.0    9.0    9.0
  12     1.0    1.0    2.0    2.0    3.0    3.0    4.0    4.0    5.0    5.0
         6.0    6.0    7.0    7.0    8.0    8.0    9.0    9.0
  13     1.0    1.0    2.0    2.0    3.0    3.0    4.0    4.0    5.0    5.0
         6.0    6.0    7.0    7.0    8.0    8.0    9.0    9.0
  14     1.0    1.0    2.0    2.0    3.0    3.0    4.0    4.0    5.0    5.0
         6.0    6.0    7.0    7.0    8.0    8.0    9.0    9.0
  15     1.0    1.0    2.0    2.0    3.0    3.0    4.0    4.0    5.0    5.0
         6.0    6.0    7.0    7.0    8.0    8.0    9.0    9.0
  16     1.0    1.0    2.0    2.0    3.0    3.0    4.0    4.0    5.0    5.0
         6.0    6.0    7.0    7.0    8.0    8.0    9.0    9.0
  17     1.0    1.0    2.0    2.0    3.0    3.0    4.0    4.0    5.0    5.0
         6.0    6.0    7.0    7.0    8.0    8.0    9.0    9.0
  18     1.0    1.0    2.0    2.0    3.0    3.0    4.0    4.0    5.0    5.0
         6.0    6.0    7.0    7.0    8.0    8.0    9.0    9.0

  MULT. ARRAY: mlt_rch    =  3.170979E-10

  MULT. ARRAY: FIFTIETH   =  2.000000E-02



             ZONE ARRAY: ZONES_1   
 READING ON UNIT   32 WITH FORMAT: (9I8)               

        1   2   3   4   5   6   7   8   9  10  11  12  13  14  15  16  17  18
 ............................................................................
   1    1   1   1   1   1   1   1   1   1   2   2   2   2   2   2   2   2   2
   2    1   1   1   1   1   1   1   1   1   2   2   2   2   2   2   2   2   2
   3    1   1   1   1   1   1   1   1   1   2   2   2   2   2   2   2   2   2
   4    1   1   1   1   1   1   1   1   1   2   2   2   2   2   2   2   2   2
   5    1   1   1   1   1   1   1   1   1   2   2   2   2   2   2   2   2   2
   6    1   1   1   1   1   1   1   1   1   2   2   2   2   2   2   2   2   2
   7    1   1   1   1   1   1   1   1   1   2   2   2   2   2   2   2   2   2
   8    1   1   1   1   1   1   1   1   1   2   2   2   2   2   2   2   2   2
   9    1   1   1   1   1   1   1   1   1   2   2   2   2   2   2   2   2   2
  10    1   1   1   1   1   1   1   1   1   2   2   2   2   2   2   2   2   2
  11    1   1   1   1   1   1   1   1   1   2   2   2   2   2   2   2   2   2
  12    1   1   1   1   1   1   1   1   1   2   2   2   2   2   2   2   2   2
  13    1   1   1   1   1   1   1   1   1   2   2   2   2   2   2   2   2   2
  14    1   1   1   1   1   1   1   1   1   2   2   2   2   2   2   2   2   2
  15    1   1   1   1   1   1   1   1   1   2   2   2   2   2   2   2   2   2
  16    1   1   1   1   1   1   1   1   1   2   2   2   2   2   2   2   2   2
  17    1   1   1   1   1   1   1   1   1   2   2   2   2   2   2   2   2   2
  18    1   1   1   1   1   1   1   1   1   2   2   2   2   2   2   2   2   2

 LPF1 -- LAYER PROPERTY FLOW PACKAGE, VERSION 1, 1/11/2000
         INPUT READ FROM UNIT   42
 # LPF input file for test case tc1
 #
 HEAD AT CELLS THAT CONVERT TO DRY=  -999.00    
     9 Named Parameters     

   LAYER FLAGS:
 LAYER       LAYTYP        LAYAVG         CHANI        LAYVKA        LAYWET
 ---------------------------------------------------------------------------
    1             1             0     1.000E+00             1             0
    2             1             0     1.000E+00             1             0
    3             1             0     1.000E+00             1             0

   INTERPRETATION OF LAYER FLAGS:
                        INTERBLOCK     HORIZONTAL    DATA IN
         LAYER TYPE   TRANSMISSIVITY   ANISOTROPY   ARRAY VKA   WETTABILITY
 LAYER      (LAYTYP)      (LAYAVG)       (CHANI)      (LAYVKA)      (LAYWET)
 ---------------------------------------------------------------------------
    1   CONVERTIBLE      HARMONIC     1.000E+00    ANISOTROPY  NON-WETTABLE
    2   CONVERTIBLE      HARMONIC     1.000E+00    ANISOTROPY  NON-WETTABLE
    3   CONVERTIBLE      HARMONIC     1.000E+00    ANISOTROPY  NON-WETTABLE

       4212 ELEMENTS IN X ARRAY ARE USED BY LPF
         18 ELEMENTS IN IX ARRAY ARE USED BY LPF

 PCG2 -- CONJUGATE GRADIENT SOLUTION PACKAGE, VERSION 2.4, 12/29/98
 MAXIMUM OF      1 CALLS OF SOLUTION ROUTINE
 MAXIMUM OF     50 INTERNAL ITERATIONS PER CALL TO SOLUTION ROUTINE
 MATRIX PRECONDITIONING TYPE :    1
       2044 ELEMENTS IN X ARRAY ARE USED BY PCG
        350 ELEMENTS IN IX ARRAY ARE USED BY PCG
       2916 ELEMENTS IN Z ARRAY ARE USED BY PCG

 OBS1BAS6 -- OBSERVATION PROCESS, VERSION 1.0, 4/27/99
 INPUT READ FROM UNIT  21
 # OBS file for test case tc1
 #
 OBSERVATION GRAPH-DATA OUTPUT FILES
 WILL BE PRINTED AND NAMED USING THE BASE: tc1-fwd

 HEAD OBSERVATIONS -- INPUT READ FROM UNIT  22

 NUMBER OF HEADS....................................:   66
   NUMBER OF MULTILAYER HEADS.......................:    0
   MAXIMUM NUMBER OF LAYERS FOR MULTILAYER HEADS....:    0

 OBS1RIV6 -- OBSERVATION PROCESS (RIVER FLOW OBSERVATIONS)
 VERSION 1.0, 10/15/98
 INPUT READ FROM UNIT   23

 NUMBER OF FLOW-OBSERVATION RIVER-CELL GROUPS.....:      1
   NUMBER OF CELLS IN RIVER-CELL GROUPS...........:     18