jtf !
# MODFLOW2000 Layer Property Flow (LPF) Package
       -50   999.000        5
  1
  0
  1.000000e+000
 1
 0
kx1  HK   !Kx1          !  1
  1  NONE kxzone1  1
kx2  HK   !Kx2          !  1
  1  NONE kxzone1  2
kx4  HK   !Kx4          !  1
  1  NONE kxzone1  4
kx5  HK   !Kx5          !  1
  1  NONE kxzone1  5
vk   VANI   1.0           1
  1  NONE  all
  -1
  -1
  -1
  