# MODFLOW2000 Head Observation File
# Groundwater Vistas also writes drawdown targets here
   2  60  2
  1.0  1.0  0
  1 -30
  qTrib 1 1. 1.0 0.01 0 1
 1 15 21 1
 1 15 22 1
 1 15 23 1
 1 15 24 1
 1 15 25 1
 1 15 26 1
 1 15 27 1
 1 15 28 1
 1 15 29 1
 1 15 30 1
 1 15 31 1
 1 15 32 1
 1 15 33 1
 1 15 34 1
 1 15 35 1
 1 15 36 1
 1 15 37 1
 1 15 38 1
 1 15 39 1
 1 15 40 1
 1 15 41 1
 1 15 42 1
 1 15 43 1
 1 15 44 1
 1 15 45 1
 1 15 46 1
 1 15 47 1
 1 15 48 1
 1 15 49 1
 1 15 50 1
  1 -30
  qMain 1 1. 1.0 0.01 0 1
 1  1 50   1
 1  2 50   1
 1  3 50   1
 1  4 50   1
 1  5 50   1
 1  6 50   1
 1  7 50   1
 1  8 50   1
 1  9 50   1
 1 10 50   1
 1 11 50   1
 1 12 50   1
 1 13 50   1
 1 14 50   1
 1 15 50   1
 1 16 50   1
 1 17 50   1
 1 18 50   1
 1 19 50   1
 1 20 50   1
 1 21 50   1
 1 22 50   1
 1 23 50   1
 1 24 50   1
 1 25 50   1
 1 26 50   1
 1 27 50   1
 1 28 50   1
 1 29 50   1
 1 30 50   1

