# Name File for MODFLOW created on 2/12/2011 by ModelMuse
LIST 11 ex3-pred.lst REPLACE

#Files generated outside of ModelMuse


#Files generated by ModelMuse
DIS 12 ex3-pred.dis OLD
BAS6 13 ex3-pred.bas OLD
OC 39 ex3-pred.oc OLD
DATA 37 ex3-pred.fhd REPLACE
DATA 38 ex3-pred.fdn REPLACE
PCG 18 ex3-pred.pcg OLD
LPF 14 ex3-pred.lpf OLD
GHB 19 ex3-pred.ghb OLD
HOB 41 ex3-pred.ob_hob OLD
RIV 21 ex3-pred.riv OLD
RVOB 48 ex3-pred.ob_rvob OLD
RCH 24 ex3-pred.rch OLD
ZONE 15 ex3-pred.zon OLD
MULT 16 ex3-pred.mlt OLD
MNW2 59 ex3-pred.mnw2 OLD
MNWI 60 ex3-pred.mnwi OLD
DATA 61 ex3-pred.wel_out REPLACE
DATA 62 ex3-pred.QSUM_out REPLACE
DATA 63 ex3-pred.BYND_out REPLACE
DATA 205 ex3-pred_Well.mnwi_out REPLACE
DATA 42 ex3-pred.hob_out REPLACE
DATA 49 ex3-pred.rvob_out REPLACE
PVAL 52 ex3-pred.pval OLD
DATA(BINARY) 1 ex3-pred.cbc REPLACE
