# MODFLOW-2005 PVAL file for project ex8
7
HK_1   4.618802687550210E-004
HK_2   1.536599699060821E-005
VANI   1.000000000000000E+000
VK_CB    9.900827513072424E-008
K_RB   1.169646822531063E-003
RCH_1    4.746308237381202E+001
RCH_2    3.889762718848647E+001
