jtf @
# MODFLOW-2005 PVAL file for project ex8
7
HK_1 @HK_1                  @
HK_2 @HK_2                  @
VANI @VANI                  @
VK_CB @VK_CB                  @
K_RB @K_RB                  @
RCH_1 @RCH_1                  @
RCH_2 @RCH_2                  @
