jtf !
# MODFLOW2000 RIVER (RIV) Package # cond = 100*10/5
PARAMETER 2 60
300 -50
KrMain RIV !KrMain       !  30
 1  1 50   5.0 2.0e+02   0.0  1          
 1  2 50   5.0 2.0e+02   0.0  1
 1  3 50   5.0 2.0e+02   0.0  1
 1  4 50   5.0 2.0e+02   0.0  1
 1  5 50   5.0 2.0e+02   0.0  1
 1  6 50   5.0 2.0e+02   0.0  1
 1  7 50   5.0 2.0e+02   0.0  1
 1  8 50   5.0 2.0e+02   0.0  1
 1  9 50   5.0 2.0e+02   0.0  1
 1 10 50   5.0 2.0e+02   0.0  1
 1 11 50   5.0 2.0e+02   0.0  1          
 1 12 50   5.0 2.0e+02   0.0  1
 1 13 50   5.0 2.0e+02   0.0  1
 1 14 50   5.0 2.0e+02   0.0  1
 1 15 50   5.0 2.0e+02   0.0  1
 1 16 50   5.0 2.0e+02   0.0  1
 1 17 50   5.0 2.0e+02   0.0  1
 1 18 50   5.0 2.0e+02   0.0  1
 1 19 50   5.0 2.0e+02   0.0  1
 1 20 50   5.0 2.0e+02   0.0  1
 1 21 50   5.0 2.0e+02   0.0  1          
 1 22 50   5.0 2.0e+02   0.0  1
 1 23 50   5.0 2.0e+02   0.0  1
 1 24 50   5.0 2.0e+02   0.0  1
 1 25 50   5.0 2.0e+02   0.0  1
 1 26 50   5.0 2.0e+02   0.0  1
 1 27 50   5.0 2.0e+02   0.0  1
 1 28 50   5.0 2.0e+02   0.0  1
 1 29 50   5.0 2.0e+02   0.0  1
 1 30 50   5.0 2.0e+02   0.0  1
KrTrib RIV !KrTrib       !  30
 1 15 21  19.8 2.0e+02  14.8 2         
 1 15 22  19.3 2.0e+02  14.3 2
 1 15 23  18.8 2.0e+02  13.8 2
 1 15 24  18.3 2.0e+02  13.3 2
 1 15 25  17.8 2.0e+02  12.8 2
 1 15 26  17.3 2.0e+02  12.3 2
 1 15 27  16.8 2.0e+02  11.8 2
 1 15 28  16.3 2.0e+02  11.3 2
 1 15 29  15.8 2.0e+02  10.8 2
 1 15 30  15.3 2.0e+02  10.3 2
 1 15 31  14.8 2.0e+02   9.8 2        
 1 15 32  14.3 2.0e+02   9.3 2
 1 15 33  13.8 2.0e+02   8.8 2
 1 15 34  13.3 2.0e+02   8.3 2
 1 15 35  12.8 2.0e+02   7.8 2
 1 15 36  12.3 2.0e+02   7.3 2
 1 15 37  11.8 2.0e+02   6.8 2
 1 15 38  11.3 2.0e+02   6.3 2
 1 15 39  10.8 2.0e+02   5.8 2
 1 15 40  10.3 2.0e+02   5.3 2
 1 15 41   9.8 2.0e+02   4.8 2        
 1 15 42   9.3 2.0e+02   4.3 2
 1 15 43   8.8 2.0e+02   3.8 2
 1 15 44   8.3 2.0e+02   3.3 2
 1 15 45   7.8 2.0e+02   2.8 2
 1 15 46   7.3 2.0e+02   2.3 2
 1 15 47   6.8 2.0e+02   1.8 2
 1 15 48   6.3 2.0e+02   1.3 2
 1 15 49   5.8 2.0e+02   0.8 2
 1 15 50   5.55 1.0e+02  0.5 2     
0 2
KrMain
KrTrib

