# Name File for MODFLOW created on 2/12/2011 by ModelMuse
LIST 11 modA.lst REPLACE
DATA(BINARY) 9 modA.cbc REPLACE

#Files generated outside of ModelMuse
HOB  90   modA.obh
DATA  91  modA.obh_out

#Files generated by ModelMuse
DIS  12 modA.dis      OLD
BAS6 13 modA.bas      OLD
OC   39 modA.oc       OLD
DATA 37 modA.fhd      REPLACE
DATA 38 modA.fdn      REPLACE
PCG  18 modA.pcg      OLD
LPF  14 modA.lpf      OLD
GHB  19 modA.ghb      OLD
RIV  21 modA.riv      OLD
RVOB 48 modA.ob_rvob  OLD
DATA 49 modA.rvob_out REPLACE
RCH  24 modA.rch      OLD
ZONE 15 modA.zon      OLD
MULT 16 modA.mlt      OLD
PVAL 52 modA.pval     OLD
