# Name File for MODFLOW created on 2/12/2011 by ModelMuse
LIST 11 modB-pred.lst REPLACE

#Files generated outside of ModelMuse


#Files generated by ModelMuse
DIS 12 modB-pred.dis OLD
BAS6 13 modB-pred.bas OLD
OC 39 modB-pred.oc OLD
DATA 37 modB-pred.fhd REPLACE
DATA 38 modB-pred.fdn REPLACE
PCG 18 modB-pred.pcg OLD
LPF 14 modB-pred.lpf OLD
GHB 19 modB-pred.ghb OLD
RIV 21 modB-pred.riv OLD
RVOB 48 modB-pred.ob_rvob OLD
DATA 49 modB-pred.rvob_out REPLACE
RCH 24 modB-pred.rch OLD
MNW2 59 modB-pred.mnw2 OLD
MNWI 60 modB-pred.mnwi OLD
DATA 61 modB-pred.wel_out REPLACE
DATA 62 modB-pred.QSUM_out REPLACE
DATA 63 modB-pred.BYND_out REPLACE
DATA 205 modB-pred_Well.mnwi_out REPLACE
ZONE 15 modB-pred.zon OLD
MULT 16 modB-pred.mlt OLD
HOB 41 modB-pred.ob_hob OLD
DATA 42 modB-pred.hob_out REPLACE
PVAL 52 modB-pred.pval OLD
DATA(BINARY) 1 modB-pred.cbc REPLACE
