jtf @
# MODFLOW-2005 PVAL file for project ex8
8
HK_1_1 @HK_1_1                @
HK_2 @HK_2                  @
VANI @VANI                  @
VK_CB @VK_CB                 @
HK_1_2 @HK_1_2                @
K_RB @K_RB                  @
RCH_1 @RCH_1                 @
RCH_2 @RCH_2                 @
