# Name File for MODFLOW created on 2/12/2011 by ModelMuse
LIST 11 modB.lst REPLACE
DATA(BINARY) 9 modB.cbc REPLACE

#Files generated outside of ModelMuse
HOB  90   modB.obh
DATA  91  modB.obh_out

#Files generated by ModelMuse
DIS  12 modB.dis      OLD
BAS6 13 modB.bas      OLD
OC   39 modB.oc       OLD
DATA 37 modB.fhd      REPLACE
DATA 38 modB.fdn      REPLACE
PCG  18 modB.pcg      OLD
LPF  14 modB.lpf      OLD
GHB  19 modB.ghb      OLD
RIV  21 modB.riv      OLD
RVOB 48 modB.ob_rvob  OLD
DATA 49 modB.rvob_out REPLACE
RCH  24 modB.rch      OLD
ZONE 15 modB.zon      OLD
MULT 16 modB.mlt      OLD
PVAL 52 modB.pval     OLD
