# MODFLOW2000 Observation File
mf04  -1  allfiles
