# MODFLOW2000 Head Observation File
# Groundwater Vistas also writes drawdown targets here
   1  45  1
  1.0  1.0  0
  1 30
 qtrib 1 1. -6188. 55. 1 1
 1 15 21 1
 1 15 22 1
 1 15 23 1
 1 15 24 1
 1 15 25 1
 1 15 26 1
 1 15 27 1
 1 15 28 1
 1 15 29 1
 1 15 30 1
 1 15 31 1
 1 15 32 1
 1 15 33 1
 1 15 34 1
 1 15 35 1
 1 15 36 1
 1 15 37 1
 1 15 38 1
 1 15 39 1
 1 15 40 1
 1 15 41 1
 1 15 42 1
 1 15 43 1
 1 15 44 1
 1 15 45 1
 1 15 46 1
 1 15 47 1
 1 15 48 1
 1 15 49 1
 1 15 50 1  
 
 
 in case needed later:
  1 -15
 qupmain 1 1. -2115.0 21. 1 1
  1  1 50 1
  1  2 50 1
  1  3 50 1
  1  4 50 1
  1  5 50 1
  1  6 50 1
  1  7 50 1
  1  8 50 1
  1  9 50 1
  1 10 50 1
  1 11 50 1
  1 12 50 1
  1 13 50 1
  1 14 50 1
  1 15 50 1

  
  