# MODFLOW2000 Head Observation File
# Groundwater Vistas also writes drawdown targets here
  20  0  0
  1.0  1.0
o11 1  28  12  1  1.000000  0.000000  0.000000   47.01936  2.0e-2  1  1
o12 1  22  12  1  1.000000  0.000000  0.000000   49.88290  2.0e-2  1  1
o13 1  16  12  1  1.000000  0.000000  0.000000   55.37046  2.0e-2  1  1
o14 1   9  12  1  1.000000  0.000000  0.000000   53.29432  2.0e-2  1  1
o15 1   3  12  1  1.000000  0.000000  0.000000   57.85324  2.0e-2  1  1
o21 1  28  24  1  1.000000  0.000000  0.000000   35.14331  2.0e-2  1  1
o22 1  22  24  1  1.000000  0.000000  0.000000   36.94184  2.0e-2  1  1
o23 1  16  24  1  1.000000  0.000000  0.000000   27.88368  2.0e-2  1  1
o24 1   9  24  1  1.000000  0.000000  0.000000   32.19376  2.0e-2  1  1
o25 1   3  24  1  1.000000  0.000000  0.000000   39.85660  2.0e-2  1  1
o31 1  28  33  1  1.000000  0.000000  0.000000   31.38551  2.0e-2  1  1
o32 1  22  33  1  1.000000  0.000000  0.000000   30.70659  2.0e-2  1  1
o33 1  16  33  1  1.000000  0.000000  0.000000   21.86519  2.0e-2  1  1
o34 1   9  33  1  1.000000  0.000000  0.000000   25.15141  2.0e-2  1  1
o35 1   3  33  1  1.000000  0.000000  0.000000   30.36495  2.0e-2  1  1
o41 1  28  45  1  1.000000  0.000000  0.000000   20.90820  2.0e-2  1  1
o42 1  22  45  1  1.000000  0.000000  0.000000   19.38562  2.0e-2  1  1
o43 1  16  45  1  1.000000  0.000000  0.000000   11.67123  2.0e-2  1  1
o44 1   9  45  1  1.000000  0.000000  0.000000   15.55926  2.0e-2  1  1
o45 1   3  45  1  1.000000  0.000000  0.000000   16.73189  2.0e-2  1  1
