# MODFLOW2000 Discretization File
 1  30  50  1  4  0
 0
         0   100.000(10E12.4)                    0     DELTA-X or C
         0   100.000(10E12.4)                    0     DELTA-Y or R
         00.0000e+00(10e12.4)                   -1     TOP of Model
         0   -10.000(10e12.4)                   -1     BOTTOM of Layer   1
  1.0000000  1  1.000000  SS
