 "MODEL NAME: " "MF2K2DX_OUTPUT"
 "MODEL LENGTH UNITS: " "N/A"
 "MODEL MASS UNITS: " "N/A"
 "MODEL TIME UNITS: " "N/A"
 "NUMBER ESTIMATED PARAMETERS: "   6
 "ORIGINAL NUMBER ESTIMATED PARAMETERS: "   6
 "TOTAL NUMBER PARAMETERS: "   6
 "NUMBER OBSERVATIONS INCLUDED: "  11
 "NUMBER OBSERVATIONS PROVIDED: "  11
 "NUMBER PRIOR: "   2
 "REGRESSION CONVERGED: " "YES" 
 "CALCULATED ERROR VARIANCE: "        1.50803620
 "STANDARD ERROR OF THE REGRESSION: "        1.22802126
 "MAXIMUM LIKELIHOOD OBJECTIVE FUNCTION - DEPENDENTS (MLOFD): "     -999.00000000
 "MAXIMUM LIKELIHOOD OBJECTIVE FUNCTION - DEPENDENTS AND PRIOR (MLOFDP): "     -999.00000000
 "AICc (MLOFD + AICc PENALTY): "     -999.00000000
 "BIC (MLOFD + BIC PENALTY): "     -999.00000000
 "HQ (MLOFD + HQ PENALTY): "     -999.00000000
 "KASHYAP (MLOFD + KASHYAP PENALTY): "     -999.00000000
 "LN DETERMINANT OF FISHER INFORMATION MATRIX: "     -999.00000000
 "RN2 DEPENDENTS: "     -999.00000000
 "RN2 DEPENDENTS AND PRIOR: "     -999.00000000
 "NUMBER OF ITERATIONS: "  -999
 "KASHYAP (MLOFDP + KASHYAP PENALTY wPri): "     -999.00000000
 "LN DETERMINANT OF FISHER INFORMATION MATRIX wPri: "     -999.00000000
 "SOME SENSITIVITIES BY FORWARD DIFFERENCE PERTURBATION: " "YES" 

 #NOTE: THIS IS A DUMMY _DM FILE CONSTRUCTED BY 
 #MF2K2DX FOR PURPOSES OF EXECUTING OPR-PPR.
 #THE FILE WAS CONSTRUCTED FROM THE CONTENTS OF
 #MODFLOW-2000 OUTPUT FILES: SOME VARIABLES DO NOT APPLY
