jtf !
# MODFLOW2000 Recharge Package
         1        50
         1         1
        18       1.0 (10G16.6) 0
 !RCH          ! !RCH          ! !RCH          ! !RCH          ! !RCH          ! !RCH          ! !RCH          ! !RCH          ! !RCH          ! !RCH          !
 !RCH          ! !RCH          ! !RCH          ! !RCH          ! !RCH          ! !RCH          ! !RCH          ! !RCH          ! !RCH          ! !RCH          !
 !RCH          ! !RCH          ! !RCH          ! !RCH          ! !RCH          ! !RCH          ! !RCH          ! !RCH          ! !RCH          ! !RCH          !
 !RCH          ! !RCH          ! !RCH          ! !RCH          ! !RCH          ! !RCH          ! !RCH          ! !RCH          ! !RCH          ! !RCH          !
 !RCH          ! !RCH          ! !RCH          ! !RCH          ! !RCH          ! !RCH          ! !RCH          ! !RCH          ! !RCH          ! !RCH          !
 !RCH          ! !RCH          ! !RCH          ! !RCH          ! !RCH          ! !RCH          ! !RCH          ! !RCH          ! !RCH          ! !RCH          !
 !RCH          ! !RCH          ! !RCH          ! !RCH          ! !RCH          ! !RCH          ! !RCH          ! !RCH          ! !RCH          ! !RCH          !
 !RCH          ! !RCH          ! !RCH          ! !RCH          ! !RCH          ! !RCH          ! !RCH          ! !RCH          ! !RCH          ! !RCH          !
 !RCH          ! !RCH          ! !RCH          ! !RCH          ! !RCH          ! !RCH          ! !RCH          ! !RCH          ! !RCH          ! !RCH          !
 !RCH          ! !RCH          ! !RCH          ! !RCH          ! !RCH          ! !RCH          ! !RCH          ! !RCH          ! !RCH          ! !RCH          !
 !RCH          ! !RCH          ! !RCH          ! !RCH          ! !RCH          ! !RCH          ! !RCH          ! !RCH          ! !RCH          ! !RCH          !
 !RCH          ! !RCH          ! !RCH          ! !RCH          ! !RCH          ! !RCH          ! !RCH          ! !RCH          ! !RCH          ! !RCH          !
 !RCH          ! !RCH          ! !RCH          ! !RCH          ! !RCH          ! !RCH          ! !RCH          ! !RCH          ! !RCH          ! !RCH          !
 !RCH          ! !RCH          ! !RCH          ! !RCH          ! !RCH          ! !RCH          ! !RCH          ! !RCH          ! !RCH          ! !RCH          !
 !RCH          ! !RCH          ! !RCH          ! !RCH          ! !RCH          ! !RCH          ! !RCH          ! !RCH          ! !RCH          ! !RCH          !
 !RCH          ! !RCH          ! !RCH          ! !RCH          ! !RCH          ! !RCH          ! !RCH          ! !RCH          ! !RCH          ! !RCH          !
 !RCH          ! !RCH          ! !RCH          ! !RCH          ! !RCH          ! !RCH          ! !RCH          ! !RCH          ! !RCH          ! !RCH          !
 !RCH          ! !RCH          ! !RCH          ! !RCH          ! !RCH          ! !RCH          ! !RCH          ! !RCH          ! !RCH          ! !RCH          !
 !RCH          ! !RCH          ! !RCH          ! !RCH          ! !RCH          ! !RCH          ! !RCH          ! !RCH          ! !RCH          ! !RCH          !
 !RCH          ! !RCH          ! !RCH          ! !RCH          ! !RCH          ! !RCH          ! !RCH          ! !RCH          ! !RCH          ! !RCH          !
 !RCH          ! !RCH          ! !RCH          ! !RCH          ! !RCH          ! !RCH          ! !RCH          ! !RCH          ! !RCH          ! !RCH          !
 !RCH          ! !RCH          ! !RCH          ! !RCH          ! !RCH          ! !RCH          ! !RCH          ! !RCH          ! !RCH          ! !RCH          !
 !RCH          ! !RCH          ! !RCH          ! !RCH          ! !RCH          ! !RCH          ! !RCH          ! !RCH          ! !RCH          ! !RCH          !
 !RCH          ! !RCH          ! !RCH          ! !RCH          ! !RCH          ! !RCH          ! !RCH          ! !RCH          ! !RCH          ! !RCH          !
 !RCH          ! !RCH          ! !RCH          ! !RCH          ! !RCH          ! !RCH          ! !RCH          ! !RCH          ! !RCH          ! !RCH          !
 !RCH          ! !RCH          ! !RCH          ! !RCH          ! !RCH          ! !RCH          ! !RCH          ! !RCH          ! !RCH          ! !RCH          !
 !RCH          ! !RCH          ! !RCH          ! !RCH          ! !RCH          ! !RCH          ! !RCH          ! !RCH          ! !RCH          ! !RCH          !
 !RCH          ! !RCH          ! !RCH          ! !RCH          ! !RCH          ! !RCH          ! !RCH          ! !RCH          ! !RCH          ! !RCH          !
 !RCH          ! !RCH          ! !RCH          ! !RCH          ! !RCH          ! !RCH          ! !RCH          ! !RCH          ! !RCH          ! !RCH          !
 !RCH          ! !RCH          ! !RCH          ! !RCH          ! !RCH          ! !RCH          ! !RCH          ! !RCH          ! !RCH          ! !RCH          !
 !RCH          ! !RCH          ! !RCH          ! !RCH          ! !RCH          ! !RCH          ! !RCH          ! !RCH          ! !RCH          ! !RCH          !
 !RCH          ! !RCH          ! !RCH          ! !RCH          ! !RCH          ! !RCH          ! !RCH          ! !RCH          ! !RCH          ! !RCH          !
 !RCH          ! !RCH          ! !RCH          ! !RCH          ! !RCH          ! !RCH          ! !RCH          ! !RCH          ! !RCH          ! !RCH          !
 !RCH          ! !RCH          ! !RCH          ! !RCH          ! !RCH          ! !RCH          ! !RCH          ! !RCH          ! !RCH          ! !RCH          !
 !RCH          ! !RCH          ! !RCH          ! !RCH          ! !RCH          ! !RCH          ! !RCH          ! !RCH          ! !RCH          ! !RCH          !
 !RCH          ! !RCH          ! !RCH          ! !RCH          ! !RCH          ! !RCH          ! !RCH          ! !RCH          ! !RCH          ! !RCH          !
 !RCH          ! !RCH          ! !RCH          ! !RCH          ! !RCH          ! !RCH          ! !RCH          ! !RCH          ! !RCH          ! !RCH          !
 !RCH          ! !RCH          ! !RCH          ! !RCH          ! !RCH          ! !RCH          ! !RCH          ! !RCH          ! !RCH          ! !RCH          !
 !RCH          ! !RCH          ! !RCH          ! !RCH          ! !RCH          ! !RCH          ! !RCH          ! !RCH          ! !RCH          ! !RCH          !
 !RCH          ! !RCH          ! !RCH          ! !RCH          ! !RCH          ! !RCH          ! !RCH          ! !RCH          ! !RCH          ! !RCH          !
 !RCH          ! !RCH          ! !RCH          ! !RCH          ! !RCH          ! !RCH          ! !RCH          ! !RCH          ! !RCH          ! !RCH          !
 !RCH          ! !RCH          ! !RCH          ! !RCH          ! !RCH          ! !RCH          ! !RCH          ! !RCH          ! !RCH          ! !RCH          !
 !RCH          ! !RCH          ! !RCH          ! !RCH          ! !RCH          ! !RCH          ! !RCH          ! !RCH          ! !RCH          ! !RCH          !
 !RCH          ! !RCH          ! !RCH          ! !RCH          ! !RCH          ! !RCH          ! !RCH          ! !RCH          ! !RCH          ! !RCH          !
 !RCH          ! !RCH          ! !RCH          ! !RCH          ! !RCH          ! !RCH          ! !RCH          ! !RCH          ! !RCH          ! !RCH          !
 !RCH          ! !RCH          ! !RCH          ! !RCH          ! !RCH          ! !RCH          ! !RCH          ! !RCH          ! !RCH          ! !RCH          !
 !RCH          ! !RCH          ! !RCH          ! !RCH          ! !RCH          ! !RCH          ! !RCH          ! !RCH          ! !RCH          ! !RCH          !
 !RCH          ! !RCH          ! !RCH          ! !RCH          ! !RCH          ! !RCH          ! !RCH          ! !RCH          ! !RCH          ! !RCH          !
 !RCH          ! !RCH          ! !RCH          ! !RCH          ! !RCH          ! !RCH          ! !RCH          ! !RCH          ! !RCH          ! !RCH          !
 !RCH          ! !RCH          ! !RCH          ! !RCH          ! !RCH          ! !RCH          ! !RCH          ! !RCH          ! !RCH          ! !RCH          !
 !RCH          ! !RCH          ! !RCH          ! !RCH          ! !RCH          ! !RCH          ! !RCH          ! !RCH          ! !RCH          ! !RCH          !
 !RCH          ! !RCH          ! !RCH          ! !RCH          ! !RCH          ! !RCH          ! !RCH          ! !RCH          ! !RCH          ! !RCH          !
 !RCH          ! !RCH          ! !RCH          ! !RCH          ! !RCH          ! !RCH          ! !RCH          ! !RCH          ! !RCH          ! !RCH          !
 !RCH          ! !RCH          ! !RCH          ! !RCH          ! !RCH          ! !RCH          ! !RCH          ! !RCH          ! !RCH          ! !RCH          !
 !RCH          ! !RCH          ! !RCH          ! !RCH          ! !RCH          ! !RCH          ! !RCH          ! !RCH          ! !RCH          ! !RCH          !
 !RCH          ! !RCH          ! !RCH          ! !RCH          ! !RCH          ! !RCH          ! !RCH          ! !RCH          ! !RCH          ! !RCH          !
 !RCH          ! !RCH          ! !RCH          ! !RCH          ! !RCH          ! !RCH          ! !RCH          ! !RCH          ! !RCH          ! !RCH          !
 !RCH          ! !RCH          ! !RCH          ! !RCH          ! !RCH          ! !RCH          ! !RCH          ! !RCH          ! !RCH          ! !RCH          !
 !RCH          ! !RCH          ! !RCH          ! !RCH          ! !RCH          ! !RCH          ! !RCH          ! !RCH          ! !RCH          ! !RCH          !
 !RCH          ! !RCH          ! !RCH          ! !RCH          ! !RCH          ! !RCH          ! !RCH          ! !RCH          ! !RCH          ! !RCH          !
 !RCH          ! !RCH          ! !RCH          ! !RCH          ! !RCH          ! !RCH          ! !RCH          ! !RCH          ! !RCH          ! !RCH          !
 !RCH          ! !RCH          ! !RCH          ! !RCH          ! !RCH          ! !RCH          ! !RCH          ! !RCH          ! !RCH          ! !RCH          !
 !RCH          ! !RCH          ! !RCH          ! !RCH          ! !RCH          ! !RCH          ! !RCH          ! !RCH          ! !RCH          ! !RCH          !
 !RCH          ! !RCH          ! !RCH          ! !RCH          ! !RCH          ! !RCH          ! !RCH          ! !RCH          ! !RCH          ! !RCH          !
 !RCH          ! !RCH          ! !RCH          ! !RCH          ! !RCH          ! !RCH          ! !RCH          ! !RCH          ! !RCH          ! !RCH          !
 !RCH          ! !RCH          ! !RCH          ! !RCH          ! !RCH          ! !RCH          ! !RCH          ! !RCH          ! !RCH          ! !RCH          !
 !RCH          ! !RCH          ! !RCH          ! !RCH          ! !RCH          ! !RCH          ! !RCH          ! !RCH          ! !RCH          ! !RCH          !
 !RCH          ! !RCH          ! !RCH          ! !RCH          ! !RCH          ! !RCH          ! !RCH          ! !RCH          ! !RCH          ! !RCH          !
 !RCH          ! !RCH          ! !RCH          ! !RCH          ! !RCH          ! !RCH          ! !RCH          ! !RCH          ! !RCH          ! !RCH          !
 !RCH          ! !RCH          ! !RCH          ! !RCH          ! !RCH          ! !RCH          ! !RCH          ! !RCH          ! !RCH          ! !RCH          !
 !RCH          ! !RCH          ! !RCH          ! !RCH          ! !RCH          ! !RCH          ! !RCH          ! !RCH          ! !RCH          ! !RCH          !
 !RCH          ! !RCH          ! !RCH          ! !RCH          ! !RCH          ! !RCH          ! !RCH          ! !RCH          ! !RCH          ! !RCH          !
 !RCH          ! !RCH          ! !RCH          ! !RCH          ! !RCH          ! !RCH          ! !RCH          ! !RCH          ! !RCH          ! !RCH          !
 !RCH          ! !RCH          ! !RCH          ! !RCH          ! !RCH          ! !RCH          ! !RCH          ! !RCH          ! !RCH          ! !RCH          !
 !RCH          ! !RCH          ! !RCH          ! !RCH          ! !RCH          ! !RCH          ! !RCH          ! !RCH          ! !RCH          ! !RCH          !
 !RCH          ! !RCH          ! !RCH          ! !RCH          ! !RCH          ! !RCH          ! !RCH          ! !RCH          ! !RCH          ! !RCH          !
 !RCH          ! !RCH          ! !RCH          ! !RCH          ! !RCH          ! !RCH          ! !RCH          ! !RCH          ! !RCH          ! !RCH          !
 !RCH          ! !RCH          ! !RCH          ! !RCH          ! !RCH          ! !RCH          ! !RCH          ! !RCH          ! !RCH          ! !RCH          !
 !RCH          ! !RCH          ! !RCH          ! !RCH          ! !RCH          ! !RCH          ! !RCH          ! !RCH          ! !RCH          ! !RCH          !
 !RCH          ! !RCH          ! !RCH          ! !RCH          ! !RCH          ! !RCH          ! !RCH          ! !RCH          ! !RCH          ! !RCH          !
 !RCH          ! !RCH          ! !RCH          ! !RCH          ! !RCH          ! !RCH          ! !RCH          ! !RCH          ! !RCH          ! !RCH          !
 !RCH          ! !RCH          ! !RCH          ! !RCH          ! !RCH          ! !RCH          ! !RCH          ! !RCH          ! !RCH          ! !RCH          !
 !RCH          ! !RCH          ! !RCH          ! !RCH          ! !RCH          ! !RCH          ! !RCH          ! !RCH          ! !RCH          ! !RCH          !
 !RCH          ! !RCH          ! !RCH          ! !RCH          ! !RCH          ! !RCH          ! !RCH          ! !RCH          ! !RCH          ! !RCH          !
 !RCH          ! !RCH          ! !RCH          ! !RCH          ! !RCH          ! !RCH          ! !RCH          ! !RCH          ! !RCH          ! !RCH          !
 !RCH          ! !RCH          ! !RCH          ! !RCH          ! !RCH          ! !RCH          ! !RCH          ! !RCH          ! !RCH          ! !RCH          !
 !RCH          ! !RCH          ! !RCH          ! !RCH          ! !RCH          ! !RCH          ! !RCH          ! !RCH          ! !RCH          ! !RCH          !
 !RCH          ! !RCH          ! !RCH          ! !RCH          ! !RCH          ! !RCH          ! !RCH          ! !RCH          ! !RCH          ! !RCH          !
 !RCH          ! !RCH          ! !RCH          ! !RCH          ! !RCH          ! !RCH          ! !RCH          ! !RCH          ! !RCH          ! !RCH          !
 !RCH          ! !RCH          ! !RCH          ! !RCH          ! !RCH          ! !RCH          ! !RCH          ! !RCH          ! !RCH          ! !RCH          !
 !RCH          ! !RCH          ! !RCH          ! !RCH          ! !RCH          ! !RCH          ! !RCH          ! !RCH          ! !RCH          ! !RCH          !
 !RCH          ! !RCH          ! !RCH          ! !RCH          ! !RCH          ! !RCH          ! !RCH          ! !RCH          ! !RCH          ! !RCH          !
 !RCH          ! !RCH          ! !RCH          ! !RCH          ! !RCH          ! !RCH          ! !RCH          ! !RCH          ! !RCH          ! !RCH          !
 !RCH          ! !RCH          ! !RCH          ! !RCH          ! !RCH          ! !RCH          ! !RCH          ! !RCH          ! !RCH          ! !RCH          !
 !RCH          ! !RCH          ! !RCH          ! !RCH          ! !RCH          ! !RCH          ! !RCH          ! !RCH          ! !RCH          ! !RCH          !
 !RCH          ! !RCH          ! !RCH          ! !RCH          ! !RCH          ! !RCH          ! !RCH          ! !RCH          ! !RCH          ! !RCH          !
 !RCH          ! !RCH          ! !RCH          ! !RCH          ! !RCH          ! !RCH          ! !RCH          ! !RCH          ! !RCH          ! !RCH          !
 !RCH          ! !RCH          ! !RCH          ! !RCH          ! !RCH          ! !RCH          ! !RCH          ! !RCH          ! !RCH          ! !RCH          !
 !RCH          ! !RCH          ! !RCH          ! !RCH          ! !RCH          ! !RCH          ! !RCH          ! !RCH          ! !RCH          ! !RCH          !
 !RCH          ! !RCH          ! !RCH          ! !RCH          ! !RCH          ! !RCH          ! !RCH          ! !RCH          ! !RCH          ! !RCH          !
 !RCH          ! !RCH          ! !RCH          ! !RCH          ! !RCH          ! !RCH          ! !RCH          ! !RCH          ! !RCH          ! !RCH          !
 !RCH          ! !RCH          ! !RCH          ! !RCH          ! !RCH          ! !RCH          ! !RCH          ! !RCH          ! !RCH          ! !RCH          !
 !RCH          ! !RCH          ! !RCH          ! !RCH          ! !RCH          ! !RCH          ! !RCH          ! !RCH          ! !RCH          ! !RCH          !
 !RCH          ! !RCH          ! !RCH          ! !RCH          ! !RCH          ! !RCH          ! !RCH          ! !RCH          ! !RCH          ! !RCH          !
 !RCH          ! !RCH          ! !RCH          ! !RCH          ! !RCH          ! !RCH          ! !RCH          ! !RCH          ! !RCH          ! !RCH          !
 !RCH          ! !RCH          ! !RCH          ! !RCH          ! !RCH          ! !RCH          ! !RCH          ! !RCH          ! !RCH          ! !RCH          !
 !RCH          ! !RCH          ! !RCH          ! !RCH          ! !RCH          ! !RCH          ! !RCH          ! !RCH          ! !RCH          ! !RCH          !
 !RCH          ! !RCH          ! !RCH          ! !RCH          ! !RCH          ! !RCH          ! !RCH          ! !RCH          ! !RCH          ! !RCH          !
 !RCH          ! !RCH          ! !RCH          ! !RCH          ! !RCH          ! !RCH          ! !RCH          ! !RCH          ! !RCH          ! !RCH          !
 !RCH          ! !RCH          ! !RCH          ! !RCH          ! !RCH          ! !RCH          ! !RCH          ! !RCH          ! !RCH          ! !RCH          !
 !RCH          ! !RCH          ! !RCH          ! !RCH          ! !RCH          ! !RCH          ! !RCH          ! !RCH          ! !RCH          ! !RCH          !
 !RCH          ! !RCH          ! !RCH          ! !RCH          ! !RCH          ! !RCH          ! !RCH          ! !RCH          ! !RCH          ! !RCH          !
 !RCH          ! !RCH          ! !RCH          ! !RCH          ! !RCH          ! !RCH          ! !RCH          ! !RCH          ! !RCH          ! !RCH          !
 !RCH          ! !RCH          ! !RCH          ! !RCH          ! !RCH          ! !RCH          ! !RCH          ! !RCH          ! !RCH          ! !RCH          !
 !RCH          ! !RCH          ! !RCH          ! !RCH          ! !RCH          ! !RCH          ! !RCH          ! !RCH          ! !RCH          ! !RCH          !
 !RCH          ! !RCH          ! !RCH          ! !RCH          ! !RCH          ! !RCH          ! !RCH          ! !RCH          ! !RCH          ! !RCH          !
 !RCH          ! !RCH          ! !RCH          ! !RCH          ! !RCH          ! !RCH          ! !RCH          ! !RCH          ! !RCH          ! !RCH          !
 !RCH          ! !RCH          ! !RCH          ! !RCH          ! !RCH          ! !RCH          ! !RCH          ! !RCH          ! !RCH          ! !RCH          !
 !RCH          ! !RCH          ! !RCH          ! !RCH          ! !RCH          ! !RCH          ! !RCH          ! !RCH          ! !RCH          ! !RCH          !
 !RCH          ! !RCH          ! !RCH          ! !RCH          ! !RCH          ! !RCH          ! !RCH          ! !RCH          ! !RCH          ! !RCH          !
 !RCH          ! !RCH          ! !RCH          ! !RCH          ! !RCH          ! !RCH          ! !RCH          ! !RCH          ! !RCH          ! !RCH          !
 !RCH          ! !RCH          ! !RCH          ! !RCH          ! !RCH          ! !RCH          ! !RCH          ! !RCH          ! !RCH          ! !RCH          !
 !RCH          ! !RCH          ! !RCH          ! !RCH          ! !RCH          ! !RCH          ! !RCH          ! !RCH          ! !RCH          ! !RCH          !
 !RCH          ! !RCH          ! !RCH          ! !RCH          ! !RCH          ! !RCH          ! !RCH          ! !RCH          ! !RCH          ! !RCH          !
 !RCH          ! !RCH          ! !RCH          ! !RCH          ! !RCH          ! !RCH          ! !RCH          ! !RCH          ! !RCH          ! !RCH          !
 !RCH          ! !RCH          ! !RCH          ! !RCH          ! !RCH          ! !RCH          ! !RCH          ! !RCH          ! !RCH          ! !RCH          !
 !RCH          ! !RCH          ! !RCH          ! !RCH          ! !RCH          ! !RCH          ! !RCH          ! !RCH          ! !RCH          ! !RCH          !
 !RCH          ! !RCH          ! !RCH          ! !RCH          ! !RCH          ! !RCH          ! !RCH          ! !RCH          ! !RCH          ! !RCH          !
 !RCH          ! !RCH          ! !RCH          ! !RCH          ! !RCH          ! !RCH          ! !RCH          ! !RCH          ! !RCH          ! !RCH          !
 !RCH          ! !RCH          ! !RCH          ! !RCH          ! !RCH          ! !RCH          ! !RCH          ! !RCH          ! !RCH          ! !RCH          !
 !RCH          ! !RCH          ! !RCH          ! !RCH          ! !RCH          ! !RCH          ! !RCH          ! !RCH          ! !RCH          ! !RCH          !
 !RCH          ! !RCH          ! !RCH          ! !RCH          ! !RCH          ! !RCH          ! !RCH          ! !RCH          ! !RCH          ! !RCH          !
 !RCH          ! !RCH          ! !RCH          ! !RCH          ! !RCH          ! !RCH          ! !RCH          ! !RCH          ! !RCH          ! !RCH          !
 !RCH          ! !RCH          ! !RCH          ! !RCH          ! !RCH          ! !RCH          ! !RCH          ! !RCH          ! !RCH          ! !RCH          !
 !RCH          ! !RCH          ! !RCH          ! !RCH          ! !RCH          ! !RCH          ! !RCH          ! !RCH          ! !RCH          ! !RCH          !
 !RCH          ! !RCH          ! !RCH          ! !RCH          ! !RCH          ! !RCH          ! !RCH          ! !RCH          ! !RCH          ! !RCH          !
 !RCH          ! !RCH          ! !RCH          ! !RCH          ! !RCH          ! !RCH          ! !RCH          ! !RCH          ! !RCH          ! !RCH          !
 !RCH          ! !RCH          ! !RCH          ! !RCH          ! !RCH          ! !RCH          ! !RCH          ! !RCH          ! !RCH          ! !RCH          !
 !RCH          ! !RCH          ! !RCH          ! !RCH          ! !RCH          ! !RCH          ! !RCH          ! !RCH          ! !RCH          ! !RCH          !
 !RCH          ! !RCH          ! !RCH          ! !RCH          ! !RCH          ! !RCH          ! !RCH          ! !RCH          ! !RCH          ! !RCH          !
 !RCH          ! !RCH          ! !RCH          ! !RCH          ! !RCH          ! !RCH          ! !RCH          ! !RCH          ! !RCH          ! !RCH          !
 !RCH          ! !RCH          ! !RCH          ! !RCH          ! !RCH          ! !RCH          ! !RCH          ! !RCH          ! !RCH          ! !RCH          !
 !RCH          ! !RCH          ! !RCH          ! !RCH          ! !RCH          ! !RCH          ! !RCH          ! !RCH          ! !RCH          ! !RCH          !
 !RCH          ! !RCH          ! !RCH          ! !RCH          ! !RCH          ! !RCH          ! !RCH          ! !RCH          ! !RCH          ! !RCH          !
 !RCH          ! !RCH          ! !RCH          ! !RCH          ! !RCH          ! !RCH          ! !RCH          ! !RCH          ! !RCH          ! !RCH          !
 !RCH          ! !RCH          ! !RCH          ! !RCH          ! !RCH          ! !RCH          ! !RCH          ! !RCH          ! !RCH          ! !RCH          !
 !RCH          ! !RCH          ! !RCH          ! !RCH          ! !RCH          ! !RCH          ! !RCH          ! !RCH          ! !RCH          ! !RCH          !
 !RCH          ! !RCH          ! !RCH          ! !RCH          ! !RCH          ! !RCH          ! !RCH          ! !RCH          ! !RCH          ! !RCH          !
 !RCH          ! !RCH          ! !RCH          ! !RCH          ! !RCH          ! !RCH          ! !RCH          ! !RCH          ! !RCH          ! !RCH          !
 !RCH          ! !RCH          ! !RCH          ! !RCH          ! !RCH          ! !RCH          ! !RCH          ! !RCH          ! !RCH          ! !RCH          !
 
